
OS:Version,
  {6b95fb9a-1b35-4c74-a08d-313e71fe67a1}, !- Handle
  2.1.0;                                  !- Version Identifier

OS:Site,
  {3a27a255-658f-47b0-8d41-98c3904cebc3}, !- Handle
  BURLINGTON INTL AP,                     !- Name
  44.467,                                 !- Latitude {deg}
  -73.15,                                 !- Longitude {deg}
  -5,                                     !- Time Zone {hr}
  101,                                    !- Elevation {m}
  City;                                   !- Terrain

OS:SimulationControl,
  {75087729-49af-48c5-8909-336d1e58d9f2}, !- Handle
  Yes,                                    !- Do Zone Sizing Calculation
  Yes,                                    !- Do System Sizing Calculation
  Yes,                                    !- Do Plant Sizing Calculation
  No,                                     !- Run Simulation for Sizing Periods
  Yes,                                    !- Run Simulation for Weather File Run Periods
  0.04,                                   !- Loads Convergence Tolerance Value
  0.2,                                    !- Temperature Convergence Tolerance Value {deltaC}
  FullInteriorAndExterior,                !- Solar Distribution
  25,                                     !- Maximum Number of Warmup Days
  6;                                      !- Minimum Number of Warmup Days

OS:Surface,
  {0020e956-af10-414f-b906-52e9e91fc081}, !- Handle
  Mult_Class_2_Pod_3_ZN_1_FLR_1_Floor,    !- Name
  Floor,                                  !- Surface Type
  ,                                       !- Construction Name
  {50ee0970-0ed9-436b-87f5-95476acb2001}, !- Space Name
  Ground,                                 !- Outside Boundary Condition
  ,                                       !- Outside Boundary Condition Object
  NoSun,                                  !- Sun Exposure
  NoWind,                                 !- Wind Exposure
  ,                                       !- View Factor to Ground
  ,                                       !- Number of Vertices
  53, 9, 0,                               !- X,Y,Z Vertex 1 {m}
  53, 0, 0,                               !- X,Y,Z Vertex 2 {m}
  0, 0, 0,                                !- X,Y,Z Vertex 3 {m}
  0, 9, 0;                                !- X,Y,Z Vertex 4 {m}

OS:Connection,
  {c2c80a82-e050-4a36-ab14-abd837fd435d}, !- Handle
  {251b0a7f-b382-4c0c-8913-890c45612eea}, !- Name
  ,                                       !- Source Object
  11,                                     !- Outlet Port
  ,                                       !- Target Object
  2;                                      !- Inlet Port

OS:Space,
  {50ee0970-0ed9-436b-87f5-95476acb2001}, !- Handle
  Mult_Class_2_Pod_3_ZN_1_FLR_1,          !- Name
  {df699898-8f4e-4b40-9226-2993d78e7f63}, !- Space Type Name
  ,                                       !- Default Construction Set Name
  ,                                       !- Default Schedule Set Name
  0,                                      !- Direction of Relative North {deg}
  11,                                     !- X Origin {m}
  95,                                     !- Y Origin {m}
  0,                                      !- Z Origin {m}
  {7de7bcb1-3b45-4cea-8603-4ad00f7cdc3d}, !- Building Story Name
  {1e1e43f2-b8a6-49f5-a1ac-29be12ce62c9}, !- Thermal Zone Name
  Yes,                                    !- Part of Total Floor Area
  ;                                       !- Design Specification Outdoor Air Object Name

OS:Connection,
  {73d832c5-4749-41de-8d2b-7890e0ec66fd}, !- Handle
  {00a9e418-0d14-41d4-9243-b01ff1024d66}, !- Name
  ,                                       !- Source Object
  11,                                     !- Outlet Port
  ,                                       !- Target Object
  2;                                      !- Inlet Port

OS:Space,
  {26566321-1dcb-49a1-bed6-07f14d97f198}, !- Handle
  Mult_Class_2_Pod_1_ZN_1_FLR_2,          !- Name
  {df699898-8f4e-4b40-9226-2993d78e7f63}, !- Space Type Name
  ,                                       !- Default Construction Set Name
  ,                                       !- Default Schedule Set Name
  0,                                      !- Direction of Relative North {deg}
  11,                                     !- X Origin {m}
  14,                                     !- Y Origin {m}
  4,                                      !- Z Origin {m}
  {5a8737f8-757d-46b4-b596-81d292394ba7}, !- Building Story Name
  {564a2720-e567-4823-ba3a-94d65f73acea}, !- Thermal Zone Name
  Yes,                                    !- Part of Total Floor Area
  ;                                       !- Design Specification Outdoor Air Object Name

OS:Surface,
  {4a13f86e-9273-4ae8-8be6-8e8d8c2abb12}, !- Handle
  Mult_Class_2_Pod_2_ZN_1_FLR_1_Wall_1,   !- Name
  Wall,                                   !- Surface Type
  ,                                       !- Construction Name
  {93ac893f-8716-46c2-90db-f9152d164242}, !- Space Name
  Surface,                                !- Outside Boundary Condition
  {74c9d179-2ce0-4f06-b0ae-163083892d1d}, !- Outside Boundary Condition Object
  NoSun,                                  !- Sun Exposure
  NoWind,                                 !- Wind Exposure
  ,                                       !- View Factor to Ground
  ,                                       !- Number of Vertices
  0, 0, 4,                                !- X,Y,Z Vertex 1 {m}
  0, 0, 0,                                !- X,Y,Z Vertex 2 {m}
  53, 0, 0,                               !- X,Y,Z Vertex 3 {m}
  53, 0, 4;                               !- X,Y,Z Vertex 4 {m}

OS:Connection,
  {bf42d1ac-6edd-4526-b73a-27d15aaa5eb4}, !- Handle
  {a49dfa9c-9331-4d69-aa9d-f5ef26b327cc}, !- Name
  ,                                       !- Source Object
  11,                                     !- Outlet Port
  ,                                       !- Target Object
  2;                                      !- Inlet Port

OS:Space,
  {93ac893f-8716-46c2-90db-f9152d164242}, !- Handle
  Mult_Class_2_Pod_2_ZN_1_FLR_1,          !- Name
  {df699898-8f4e-4b40-9226-2993d78e7f63}, !- Space Type Name
  ,                                       !- Default Construction Set Name
  ,                                       !- Default Schedule Set Name
  0,                                      !- Direction of Relative North {deg}
  11,                                     !- X Origin {m}
  54,                                     !- Y Origin {m}
  0,                                      !- Z Origin {m}
  {7de7bcb1-3b45-4cea-8603-4ad00f7cdc3d}, !- Building Story Name
  {df2a4e4c-795c-4edc-bbfa-09e9f055bcfe}, !- Thermal Zone Name
  Yes,                                    !- Part of Total Floor Area
  ;                                       !- Design Specification Outdoor Air Object Name

OS:Surface,
  {d5514762-f270-4f64-9d7f-0d6e70b39b0f}, !- Handle
  Mult_Class_2_Pod_3_ZN_1_FLR_2_Wall_2,   !- Name
  Wall,                                   !- Surface Type
  ,                                       !- Construction Name
  {536b690f-cbe2-4b0d-b501-9cebdd7f8ddf}, !- Space Name
  Surface,                                !- Outside Boundary Condition
  {2b25449e-ae08-42f5-a594-79df0882c3f2}, !- Outside Boundary Condition Object
  NoSun,                                  !- Sun Exposure
  NoWind,                                 !- Wind Exposure
  ,                                       !- View Factor to Ground
  ,                                       !- Number of Vertices
  53, 0, 4,                               !- X,Y,Z Vertex 1 {m}
  53, 0, 0,                               !- X,Y,Z Vertex 2 {m}
  53, 9, 0,                               !- X,Y,Z Vertex 3 {m}
  53, 9, 4;                               !- X,Y,Z Vertex 4 {m}

OS:Connection,
  {ddfbfe8b-a28e-4a8a-bd6c-c314169ed98c}, !- Handle
  {37b045e6-3924-45b8-80de-2eb7d85caa04}, !- Name
  ,                                       !- Source Object
  11,                                     !- Outlet Port
  ,                                       !- Target Object
  2;                                      !- Inlet Port

OS:Space,
  {536b690f-cbe2-4b0d-b501-9cebdd7f8ddf}, !- Handle
  Mult_Class_2_Pod_3_ZN_1_FLR_2,          !- Name
  {df699898-8f4e-4b40-9226-2993d78e7f63}, !- Space Type Name
  ,                                       !- Default Construction Set Name
  ,                                       !- Default Schedule Set Name
  0,                                      !- Direction of Relative North {deg}
  11,                                     !- X Origin {m}
  95,                                     !- Y Origin {m}
  4,                                      !- Z Origin {m}
  {5a8737f8-757d-46b4-b596-81d292394ba7}, !- Building Story Name
  {d2bc76c4-1815-4836-af0e-dd0f4dca47fd}, !- Thermal Zone Name
  Yes,                                    !- Part of Total Floor Area
  ;                                       !- Design Specification Outdoor Air Object Name

OS:Connection,
  {af71b93a-733b-40d5-85e5-5c48369e517f}, !- Handle
  {ea3819ce-557a-4a6a-989b-08612cd9fa31}, !- Name
  ,                                       !- Source Object
  11,                                     !- Outlet Port
  ,                                       !- Target Object
  2;                                      !- Inlet Port

OS:Space,
  {e620baba-ae14-49ab-a245-a4107f2c5827}, !- Handle
  Main_Corridor_ZN_1_FLR_2,               !- Name
  {8d64d741-6e15-44d7-8023-c78970d676b4}, !- Space Type Name
  ,                                       !- Default Construction Set Name
  ,                                       !- Default Schedule Set Name
  0,                                      !- Direction of Relative North {deg}
  64,                                     !- X Origin {m}
  14,                                     !- Y Origin {m}
  4,                                      !- Z Origin {m}
  {5a8737f8-757d-46b4-b596-81d292394ba7}, !- Building Story Name
  {4c64b8c3-359d-4a04-8352-5be2829512ce}, !- Thermal Zone Name
  Yes,                                    !- Part of Total Floor Area
  ;                                       !- Design Specification Outdoor Air Object Name

OS:Surface,
  {ea3cca4e-4bd9-45b8-a3fc-c85cf0f0dc02}, !- Handle
  Aux_Gym_ZN_1_FLR_2_Wall_3,              !- Name
  Wall,                                   !- Surface Type
  ,                                       !- Construction Name
  {edeca913-5819-4fbe-b826-e2c1e4b22cb9}, !- Space Name
  Surface,                                !- Outside Boundary Condition
  {ad49f8da-df05-4e55-9b84-2c6670019a00}, !- Outside Boundary Condition Object
  NoSun,                                  !- Sun Exposure
  NoWind,                                 !- Wind Exposure
  ,                                       !- View Factor to Ground
  ,                                       !- Number of Vertices
  24, 52, 8,                              !- X,Y,Z Vertex 1 {m}
  24, 52, 4,                              !- X,Y,Z Vertex 2 {m}
  0, 52, 4,                               !- X,Y,Z Vertex 3 {m}
  0, 52, 8;                               !- X,Y,Z Vertex 4 {m}

OS:Connection,
  {f54bd571-ecdf-430c-b1c8-d7197cda62ab}, !- Handle
  {91af9d68-8a11-4bf6-bf1a-2c6246db49cf}, !- Name
  ,                                       !- Source Object
  11,                                     !- Outlet Port
  ,                                       !- Target Object
  2;                                      !- Inlet Port

OS:Space,
  {edeca913-5819-4fbe-b826-e2c1e4b22cb9}, !- Handle
  Aux_Gym_ZN_1_FLR_1,                     !- Name
  {128a6ba4-5c68-476d-b0b7-362c66cde84c}, !- Space Type Name
  ,                                       !- Default Construction Set Name
  ,                                       !- Default Schedule Set Name
  0,                                      !- Direction of Relative North {deg}
  117,                                    !- X Origin {m}
  14,                                     !- Y Origin {m}
  0,                                      !- Z Origin {m}
  {7de7bcb1-3b45-4cea-8603-4ad00f7cdc3d}, !- Building Story Name
  {7c81de13-48df-4155-92ae-9434e1656dea}, !- Thermal Zone Name
  Yes,                                    !- Part of Total Floor Area
  ;                                       !- Design Specification Outdoor Air Object Name

OS:SubSurface,
  {3d0b67c4-16ba-456c-8464-bf3e71816af8}, !- Handle
  Mult_Class_2_Pod_3_ZN_1_FLR_2_Wall_3_window_1, !- Name
  FixedWindow,                            !- Sub Surface Type
  {edcb17ef-980a-492c-8ed6-17c7ffd26a1a}, !- Construction Name
  {37857818-cd21-4407-a852-b193f91dfe00}, !- Surface Name
  ,                                       !- Outside Boundary Condition Object
  ,                                       !- View Factor to Ground
  ,                                       !- Shading Control Name
  ,                                       !- Frame and Divider Name
  1,                                      !- Multiplier
  ,                                       !- Number of Vertices
  52.95, 9, 2.5026,                       !- X,Y,Z Vertex 1 {m}
  52.95, 9, 1.1,                          !- X,Y,Z Vertex 2 {m}
  0.05, 9, 1.1,                           !- X,Y,Z Vertex 3 {m}
  0.05, 9, 2.5026;                        !- X,Y,Z Vertex 4 {m}

OS:Surface,
  {37857818-cd21-4407-a852-b193f91dfe00}, !- Handle
  Mult_Class_2_Pod_3_ZN_1_FLR_2_Wall_3,   !- Name
  Wall,                                   !- Surface Type
  ,                                       !- Construction Name
  {536b690f-cbe2-4b0d-b501-9cebdd7f8ddf}, !- Space Name
  Outdoors,                               !- Outside Boundary Condition
  ,                                       !- Outside Boundary Condition Object
  SunExposed,                             !- Sun Exposure
  WindExposed,                            !- Wind Exposure
  ,                                       !- View Factor to Ground
  ,                                       !- Number of Vertices
  53, 9, 4,                               !- X,Y,Z Vertex 1 {m}
  53, 9, 0,                               !- X,Y,Z Vertex 2 {m}
  0, 9, 0,                                !- X,Y,Z Vertex 3 {m}
  0, 9, 4;                                !- X,Y,Z Vertex 4 {m}

OS:Connection,
  {0f20d1e8-c98f-44d7-a589-16e4ca0d7e89}, !- Handle
  {c2c0d939-35a0-4853-841c-8447bf0d6a75}, !- Name
  ,                                       !- Source Object
  11,                                     !- Outlet Port
  ,                                       !- Target Object
  2;                                      !- Inlet Port

OS:Space,
  {85a8bc0b-baad-4c62-bbad-cea46198cbb4}, !- Handle
  Bathrooms_ZN_1_FLR_2,                   !- Name
  {58bd322a-7ebf-4649-8cda-83a96f07adbf}, !- Space Type Name
  ,                                       !- Default Construction Set Name
  ,                                       !- Default Schedule Set Name
  0,                                      !- Direction of Relative North {deg}
  64,                                     !- X Origin {m}
  90,                                     !- Y Origin {m}
  4,                                      !- Z Origin {m}
  {5a8737f8-757d-46b4-b596-81d292394ba7}, !- Building Story Name
  {7bfaf36d-ab04-488f-8d97-6383a450d9c9}, !- Thermal Zone Name
  Yes,                                    !- Part of Total Floor Area
  ;                                       !- Design Specification Outdoor Air Object Name

OS:Surface,
  {a12e593a-b1d9-4e7a-89ca-f65bc2538aa8}, !- Handle
  Main_Corridor_ZN_1_FLR_2_Wall_9,        !- Name
  Wall,                                   !- Surface Type
  ,                                       !- Construction Name
  {e620baba-ae14-49ab-a245-a4107f2c5827}, !- Space Name
  Surface,                                !- Outside Boundary Condition
  {aadac5b6-bf32-471f-8d2a-4445e8155db3}, !- Outside Boundary Condition Object
  NoSun,                                  !- Sun Exposure
  NoWind,                                 !- Wind Exposure
  ,                                       !- View Factor to Ground
  ,                                       !- Number of Vertices
  0, 40, 4,                               !- X,Y,Z Vertex 1 {m}
  0, 40, 0,                               !- X,Y,Z Vertex 2 {m}
  0, 35, 0,                               !- X,Y,Z Vertex 3 {m}
  0, 35, 4;                               !- X,Y,Z Vertex 4 {m}

OS:Surface,
  {d1dc69f0-dd78-435b-9304-a0ee7af53247}, !- Handle
  Corner_Class_2_Pod_3_ZN_1_FLR_2_Wall_3, !- Name
  Wall,                                   !- Surface Type
  ,                                       !- Construction Name
  {3a5deeea-8f81-478e-b658-6a4d6474842b}, !- Space Name
  Outdoors,                               !- Outside Boundary Condition
  ,                                       !- Outside Boundary Condition Object
  SunExposed,                             !- Sun Exposure
  WindExposed,                            !- Wind Exposure
  ,                                       !- View Factor to Ground
  ,                                       !- Number of Vertices
  11, 9, 4,                               !- X,Y,Z Vertex 1 {m}
  11, 9, 0,                               !- X,Y,Z Vertex 2 {m}
  0, 9, 0,                                !- X,Y,Z Vertex 3 {m}
  0, 9, 4;                                !- X,Y,Z Vertex 4 {m}

OS:Connection,
  {be5489d4-d496-497b-aac9-17f9372ff8f6}, !- Handle
  {8a97002f-8cc5-470e-9dbd-282169752ac3}, !- Name
  ,                                       !- Source Object
  11,                                     !- Outlet Port
  ,                                       !- Target Object
  2;                                      !- Inlet Port

OS:Space,
  {3a5deeea-8f81-478e-b658-6a4d6474842b}, !- Handle
  Corner_Class_2_Pod_3_ZN_1_FLR_2,        !- Name
  {df699898-8f4e-4b40-9226-2993d78e7f63}, !- Space Type Name
  ,                                       !- Default Construction Set Name
  ,                                       !- Default Schedule Set Name
  0,                                      !- Direction of Relative North {deg}
  0,                                      !- X Origin {m}
  95,                                     !- Y Origin {m}
  4,                                      !- Z Origin {m}
  {5a8737f8-757d-46b4-b596-81d292394ba7}, !- Building Story Name
  {1b3d3164-df1d-4b5c-8a4f-21d5412ec22e}, !- Thermal Zone Name
  Yes,                                    !- Part of Total Floor Area
  ;                                       !- Design Specification Outdoor Air Object Name

OS:Connection,
  {93f88122-a72d-440e-9683-3eb90327fa96}, !- Handle
  {d5f59996-ed83-4c85-acae-31e99b46757b}, !- Name
  ,                                       !- Source Object
  11,                                     !- Outlet Port
  ,                                       !- Target Object
  2;                                      !- Inlet Port

OS:Space,
  {1c108ab5-997d-4540-8c67-2ae129bcc357}, !- Handle
  Kitchen_ZN_1_FLR_1,                     !- Name
  {c5a233ca-ea01-499b-b737-7cb2b877e36e}, !- Space Type Name
  ,                                       !- Default Construction Set Name
  ,                                       !- Default Schedule Set Name
  0,                                      !- Direction of Relative North {deg}
  117,                                    !- X Origin {m}
  66,                                     !- Y Origin {m}
  0,                                      !- Z Origin {m}
  {7de7bcb1-3b45-4cea-8603-4ad00f7cdc3d}, !- Building Story Name
  {4174e740-3b3f-4c89-9fad-3c53cce38012}, !- Thermal Zone Name
  Yes,                                    !- Part of Total Floor Area
  ;                                       !- Design Specification Outdoor Air Object Name

OS:Surface,
  {9f3c5eb2-9790-431b-a27a-ae62ef9bf2fa}, !- Handle
  Gym_ZN_1_FLR_1_Wall_3,                  !- Name
  Wall,                                   !- Surface Type
  ,                                       !- Construction Name
  {bbc33dab-14a9-4550-b9f1-24bc3cbb5bcc}, !- Space Name
  Surface,                                !- Outside Boundary Condition
  {9dbf29f3-e592-4d89-881e-41170fb805de}, !- Outside Boundary Condition Object
  NoSun,                                  !- Sun Exposure
  NoWind,                                 !- Wind Exposure
  ,                                       !- View Factor to Ground
  ,                                       !- Number of Vertices
  38, 52, 4,                              !- X,Y,Z Vertex 1 {m}
  38, 52, 0,                              !- X,Y,Z Vertex 2 {m}
  0, 52, 0,                               !- X,Y,Z Vertex 3 {m}
  0, 52, 4;                               !- X,Y,Z Vertex 4 {m}

OS:Connection,
  {707a3915-c917-4a1c-9d75-79c7abeac452}, !- Handle
  {48aa7250-6fdb-4066-9815-3020846e037a}, !- Name
  ,                                       !- Source Object
  11,                                     !- Outlet Port
  ,                                       !- Target Object
  2;                                      !- Inlet Port

OS:Space,
  {bbc33dab-14a9-4550-b9f1-24bc3cbb5bcc}, !- Handle
  Gym_ZN_1_FLR_1,                         !- Name
  {887955a2-6990-4c59-b1b4-dd360040de79}, !- Space Type Name
  ,                                       !- Default Construction Set Name
  ,                                       !- Default Schedule Set Name
  0,                                      !- Direction of Relative North {deg}
  79,                                     !- X Origin {m}
  14,                                     !- Y Origin {m}
  0,                                      !- Z Origin {m}
  {7de7bcb1-3b45-4cea-8603-4ad00f7cdc3d}, !- Building Story Name
  {71a5945c-7346-426f-83ac-16699c623ac5}, !- Thermal Zone Name
  Yes,                                    !- Part of Total Floor Area
  ;                                       !- Design Specification Outdoor Air Object Name

OS:SubSurface,
  {5cd948fa-9ec3-4a4c-8d9a-2c886b66b008}, !- Handle
  Lobby_ZN_1_FLR_2_Wall_1_window_1,       !- Name
  FixedWindow,                            !- Sub Surface Type
  {edcb17ef-980a-492c-8ed6-17c7ffd26a1a}, !- Construction Name
  {bed07505-8b19-49d8-91bf-05d45015ee8e}, !- Surface Name
  ,                                       !- Outside Boundary Condition Object
  ,                                       !- View Factor to Ground
  ,                                       !- Shading Control Name
  ,                                       !- Frame and Divider Name
  1,                                      !- Multiplier
  ,                                       !- Number of Vertices
  0.05, 0, 2.5094,                        !- X,Y,Z Vertex 1 {m}
  0.05, 0, 1.1,                           !- X,Y,Z Vertex 2 {m}
  14.95, 0, 1.1,                          !- X,Y,Z Vertex 3 {m}
  14.95, 0, 2.5094;                       !- X,Y,Z Vertex 4 {m}

OS:Surface,
  {bed07505-8b19-49d8-91bf-05d45015ee8e}, !- Handle
  Lobby_ZN_1_FLR_2_Wall_1,                !- Name
  Wall,                                   !- Surface Type
  ,                                       !- Construction Name
  {a361ad25-37e4-44e9-b05c-68a11f83f419}, !- Space Name
  Outdoors,                               !- Outside Boundary Condition
  ,                                       !- Outside Boundary Condition Object
  SunExposed,                             !- Sun Exposure
  WindExposed,                            !- Wind Exposure
  ,                                       !- View Factor to Ground
  ,                                       !- Number of Vertices
  0, 0, 4,                                !- X,Y,Z Vertex 1 {m}
  0, 0, 0,                                !- X,Y,Z Vertex 2 {m}
  15, 0, 0,                               !- X,Y,Z Vertex 3 {m}
  15, 0, 4;                               !- X,Y,Z Vertex 4 {m}

OS:Connection,
  {85e59911-4f11-40dd-b476-c903fb61aaee}, !- Handle
  {bccfcf2b-fc58-4afa-aef4-3ca83c6fee1c}, !- Name
  ,                                       !- Source Object
  11,                                     !- Outlet Port
  ,                                       !- Target Object
  2;                                      !- Inlet Port

OS:Space,
  {a361ad25-37e4-44e9-b05c-68a11f83f419}, !- Handle
  Lobby_ZN_1_FLR_2,                       !- Name
  {637b5428-089d-4688-ba53-26e367a01222}, !- Space Type Name
  ,                                       !- Default Construction Set Name
  ,                                       !- Default Schedule Set Name
  0,                                      !- Direction of Relative North {deg}
  64,                                     !- X Origin {m}
  0,                                      !- Y Origin {m}
  4,                                      !- Z Origin {m}
  {5a8737f8-757d-46b4-b596-81d292394ba7}, !- Building Story Name
  {c6564224-cc4e-4a34-aacc-ec3c90a4be36}, !- Thermal Zone Name
  Yes,                                    !- Part of Total Floor Area
  ;                                       !- Design Specification Outdoor Air Object Name

OS:Surface,
  {ecae76d4-bd66-4372-9cf7-2a90be3e93be}, !- Handle
  Mech_ZN_1_FLR_2_Wall_2,                 !- Name
  Wall,                                   !- Surface Type
  ,                                       !- Construction Name
  {0442b7e5-d7d9-4c6d-945d-6af83f402da2}, !- Space Name
  Surface,                                !- Outside Boundary Condition
  {6bc2c081-ff97-4cf4-bd35-280ec64ef457}, !- Outside Boundary Condition Object
  NoSun,                                  !- Sun Exposure
  NoWind,                                 !- Wind Exposure
  ,                                       !- View Factor to Ground
  ,                                       !- Number of Vertices
  38, 0, 4,                               !- X,Y,Z Vertex 1 {m}
  38, 0, 0,                               !- X,Y,Z Vertex 2 {m}
  38, 9, 0,                               !- X,Y,Z Vertex 3 {m}
  38, 9, 4;                               !- X,Y,Z Vertex 4 {m}

OS:Connection,
  {ed220d19-9544-4429-b7b1-4b9e00b42dca}, !- Handle
  {cc4666dd-cc0a-49e2-9a72-ab8c13c3e0fb}, !- Name
  ,                                       !- Source Object
  11,                                     !- Outlet Port
  ,                                       !- Target Object
  2;                                      !- Inlet Port

OS:Space,
  {0442b7e5-d7d9-4c6d-945d-6af83f402da2}, !- Handle
  Mech_ZN_1_FLR_2,                        !- Name
  {ed188fb1-d67f-4e1f-886a-3a0edd09e83a}, !- Space Type Name
  ,                                       !- Default Construction Set Name
  ,                                       !- Default Schedule Set Name
  0,                                      !- Direction of Relative North {deg}
  79,                                     !- X Origin {m}
  66,                                     !- Y Origin {m}
  4,                                      !- Z Origin {m}
  {5a8737f8-757d-46b4-b596-81d292394ba7}, !- Building Story Name
  {1cac7ef6-9e31-496b-97d2-4c2ea6538278}, !- Thermal Zone Name
  Yes,                                    !- Part of Total Floor Area
  ;                                       !- Design Specification Outdoor Air Object Name

OS:Surface,
  {e518b2a6-8ec7-4f12-846a-d74cbdedabd5}, !- Handle
  Mult_Class_2_Pod_1_ZN_1_FLR_1_Wall_2,   !- Name
  Wall,                                   !- Surface Type
  ,                                       !- Construction Name
  {1808cd56-9633-47f5-95fc-231199b7d80c}, !- Space Name
  Surface,                                !- Outside Boundary Condition
  {6b2c8fbe-9889-499f-8c32-a0121701534c}, !- Outside Boundary Condition Object
  NoSun,                                  !- Sun Exposure
  NoWind,                                 !- Wind Exposure
  ,                                       !- View Factor to Ground
  ,                                       !- Number of Vertices
  53, 0, 4,                               !- X,Y,Z Vertex 1 {m}
  53, 0, 0,                               !- X,Y,Z Vertex 2 {m}
  53, 9, 0,                               !- X,Y,Z Vertex 3 {m}
  53, 9, 4;                               !- X,Y,Z Vertex 4 {m}

OS:Connection,
  {8a93e853-baa0-456c-b577-3aba15efb05b}, !- Handle
  {fe108f02-d5f2-4a08-a20b-d2c986bf06d9}, !- Name
  ,                                       !- Source Object
  11,                                     !- Outlet Port
  ,                                       !- Target Object
  2;                                      !- Inlet Port

OS:Space,
  {1808cd56-9633-47f5-95fc-231199b7d80c}, !- Handle
  Mult_Class_2_Pod_1_ZN_1_FLR_1,          !- Name
  {df699898-8f4e-4b40-9226-2993d78e7f63}, !- Space Type Name
  ,                                       !- Default Construction Set Name
  ,                                       !- Default Schedule Set Name
  0,                                      !- Direction of Relative North {deg}
  11,                                     !- X Origin {m}
  14,                                     !- Y Origin {m}
  0,                                      !- Z Origin {m}
  {7de7bcb1-3b45-4cea-8603-4ad00f7cdc3d}, !- Building Story Name
  {1e449900-57cd-48a7-825e-559ab666ea42}, !- Thermal Zone Name
  Yes,                                    !- Part of Total Floor Area
  ;                                       !- Design Specification Outdoor Air Object Name
